
     RDKit          3D

 24 25  0  0  0  0  0  0  0  0999 V2000
    3.1953    0.6830   -0.2178 C   0  0  0  0  0  0  0  0  0  0  0  0
    2.1441   -0.2991   -0.2633 N   0  0  0  0  0  0  0  0  0  0  0  0
    2.2143   -1.6078   -0.4670 C   0  0  0  0  0  0  0  0  0  0  0  0
    0.9789   -2.1554   -0.4293 N   0  0  0  0  0  0  0  0  0  0  0  0
    0.0983   -1.1675   -0.1950 C   0  0  0  0  0  0  0  0  0  0  0  0
    0.8334   -0.0022   -0.0912 C   0  0  0  0  0  0  0  0  0  0  0  0
    0.1596    1.1816    0.1524 C   0  0  0  0  0  0  0  0  0  0  0  0
    0.7952    2.2561    0.2522 O   0  0  0  0  0  0  0  0  0  0  0  0
   -1.1774    1.2009    0.2853 N   0  0  0  0  0  0  0  0  0  0  0  0
   -1.8632    0.0526    0.1792 C   0  0  0  0  0  0  0  0  0  0  0  0
   -3.1148    0.0834    0.3055 O   0  0  0  0  0  0  0  0  0  0  0  0
   -1.2387   -1.1335   -0.0600 N   0  0  0  0  0  0  0  0  0  0  0  0
   -1.9586   -2.3736   -0.1765 C   0  0  0  0  0  0  0  0  0  0  0  0
   -1.9181    2.4300    0.5422 C   0  0  0  0  0  0  0  0  0  0  0  0
    4.1369    0.1530    0.1023 H   0  0  0  0  0  0  0  0  0  0  0  0
    3.3489    1.2163   -1.1683 H   0  0  0  0  0  0  0  0  0  0  0  0
    3.0147    1.4340    0.5966 H   0  0  0  0  0  0  0  0  0  0  0  0
    3.1673   -2.1340   -0.6388 H   0  0  0  0  0  0  0  0  0  0  0  0
   -1.3691   -3.2424    0.1880 H   0  0  0  0  0  0  0  0  0  0  0  0
   -2.8324   -2.3053    0.5351 H   0  0  0  0  0  0  0  0  0  0  0  0
   -2.3874   -2.5573   -1.1632 H   0  0  0  0  0  0  0  0  0  0  0  0
   -2.7346    2.2735    1.2581 H   0  0  0  0  0  0  0  0  0  0  0  0
   -2.2819    2.7987   -0.4463 H   0  0  0  0  0  0  0  0  0  0  0  0
   -1.2108    3.2151    0.9198 H   0  0  0  0  0  0  0  0  0  0  0  0
  1  2  1  0
  2  3  1  0
  3  4  2  0
  4  5  1  0
  5  6  2  0
  6  7  1  0
  7  8  2  0
  7  9  1  0
  9 10  1  0
 10 11  2  0
 10 12  1  0
 12 13  1  0
  9 14  1  0
  6  2  1  0
 12  5  1  0
  1 15  1  0
  1 16  1  0
  1 17  1  0
  3 18  1  0
 13 19  1  0
 13 20  1  0
 13 21  1  0
 14 22  1  0
 14 23  1  0
 14 24  1  0
M  END
